%nproc=1
#p freq external='/mlatom/software/miniconda3/bin/python /mlatom/home/fatemealavi/mlatom_devBranch/mlatom/interfaces/gaussian_interface.py model_predict_kwargs'

bb1ff8ff-8764-429c-a4d9-a52b59034cbe

0 1
C            -0.5311574168225           0.0000000181645           0.0000991400662
O             0.6757671815057          -0.0000001745306          -0.0000626494175
H            -1.1095951868214           0.9382336526379          -0.0000664072367
H            -1.1095977642928          -0.9382323653789          -0.0000272378200

