%nproc=1
#p freq external='/mlatom/software/miniconda3/bin/python /mlatom/home/fatemealavi/mlatom_devBranch/mlatom/interfaces/gaussian_interface.py model_predict_kwargs'

b63d2ba8-751e-4145-a935-d9f88f92026e

0 1
C            -0.5342456464401           0.0000000218720           0.0001414933098
O             0.6787564086109          -0.0000001627532          -0.0000859863225
H            -1.1122874983124           0.9360904781957          -0.0001000856455
H            -1.1122898919338          -0.9360893074022          -0.0000609836328

