%nproc=1
#p freq external='/mlatom/software/miniconda3/bin/python /mlatom/home/fatemealavi/mlatom_devBranch/mlatom/interfaces/gaussian_interface.py model_predict_kwargs'

f4239f8a-c5a7-4c88-980a-9340091d68a1

0 1
N             0.0000000000000           0.5227388469842          -0.0000000000000
O            -1.1156866525144           0.1577128222279           0.0000000000000
O             0.8955438994254          -0.5951350326539          -0.0000000000000
H             1.7611420247148          -0.1597942454801          -0.0000000000000

