%nproc=1
#p freq external='/mlatom/software/miniconda3/bin/python /mlatom/home/fatemealavi/mlatom_devBranch/mlatom/interfaces/gaussian_interface.py model_predict_kwargs'

7652aab6-e28b-4fe5-9eb4-01a9534967b9

0 1
N             0.0000000000000           0.5210178151348           0.0000000000000
O            -1.1175469322318           0.1531428906808           0.0000000000000
O             0.8975893861818          -0.5908305287677          -0.0000000000000
H             1.7596603683988          -0.1456236012440           0.0000000000000

