%nproc=1
#p freq external='/mlatom/software/miniconda3/bin/python /mlatom/home/fatemealavi/mlatom_devBranch/mlatom/interfaces/gaussian_interface.py model_predict_kwargs'

e5837830-2e14-44f8-8484-5772f7198257

0 1
C            -0.1335684576521           0.4008522914353           0.0000262986220
O            -1.1323803546048          -0.2638508494816          -0.0000109877986
O             1.1163944261212          -0.0916000822833          -0.0000079688272
H            -0.1056865567168           1.4944958737240           0.0000331490062
H             1.0349847304980          -1.0560021682149          -0.0000392877328

